Modified 4 Bus/6_Node_with_PV_ES_GFM/sub/Transformers.dss
New "Transformer.t1" XHL=6 buses=[n2, n3, ] conns=[delta, wye, ] kVs=[12.47, 4.16, ] kVAs=[6000, 6000, ] taps=[1, 1, ] buses=[n2, n3, ] conns=[delta, wye, ] kVs=[12.47, 4.16, ] kVAs=[6000, 6000, ] taps=[1, 1, ] wdg=1 %R=0.5 RdcOhms=0.1101465 wdg=2 %R=0.5 RdcOhms=0.004086044 RdcOhms=0.004086044
New "Transformer.t2" XHL=2 buses=[pvbus.1.2.3.0, n5.1.2.3 ] conns=[wye, delta, ] kVs=[0.48, 4.16, ] kVAs=[500, 500, ] taps=[1, 1, ] buses=[pvbus.1.2.3.0, n5.1.2.3 ] conns=[wye, delta, ] kVs=[0.48, 4.16, ] kVAs=[500, 500, ] taps=[1, 1, ] wdg=1 %R=0.55 RdcOhms=0.00071808 wdg=2 %R=0.55 RdcOhms=0.1618074 RdcOhms=0.1618074
New "Transformer.tsto1" phases=3 windings=2 buses=[stobus, n6, ] conns=[delta, wye, ] kVs=[0.48, 4.16, ] kVAs=[1000, 1000, ] taps=[1, 1, ] XHL=0.5
